*Heading
** Job name: spheretest Model name: Model-1
** Generated by: Abaqus/CAE 6.14-2
*Preprint, echo=NO, model=NO, history=NO, contact=NO
**
** PARTS
**
*Part, name=Part-1
*Node
      1,   1.95090318,   9.80785275,           0.
      2,   3.82683444,   9.23879528,           0.
      3,   5.55570221,   8.31469631,           0.
      4,   8.31469631,   5.55570221,           0.
      5,   9.23879528,   3.82683444,           0.
      6,   9.80785275,   1.95090318,           0.
      7,          10.,           0.,           0.
      8,   9.80785275,  -1.95090318,           0.
      9,   9.23879528,  -3.82683444,           0.
     10,   8.31469631,  -5.55570221,           0.
     11,   5.55570221,  -8.31469631,           0.
     12,   3.82683444,  -9.23879528,           0.
     13,   1.95090318,  -9.80785275,           0.
     14,           0.,          10.,           0.
     15,           0.,         -10.,           0.
     16,  -8.66961098,  0.106473915,  -4.98262119
     17,  -9.31582069, -0.428648442,   -3.6099503
     18,  -9.70015907,  -0.20237121,  -2.42197442
     19,  -9.96536255, -0.0691320151,  -0.82871753
     20,  -9.96412754, 0.0653182715,  0.843742311
** ... 7405 like lines cut
*Element, type=C3D10
   1,  432,  433,  434,  435, 1052, 1051, 1050, 1054, 1053, 1055
   2,  432,  436,  434,  437, 1057, 1056, 1050, 1059, 1058, 1060
   3,  432,  436,  437,  438, 1057, 1058, 1059, 1062, 1061, 1063
   4,  432,  436,  438,  439, 1057, 1061, 1062, 1065, 1064, 1066
   5,  440,  432,  441,  436, 1069, 1068, 1067, 1070, 1057, 1071
   6,  436,  432,  441,  439, 1057, 1068, 1071, 1064, 1065, 1072
   7,  432,  442,  440,  441, 1074, 1073, 1069, 1068, 1075, 1067
   8,  443,  444,  445,  446, 1078, 1077, 1076, 1080, 1079, 1081
   9,  447,  448,  449,  450, 1084, 1083, 1082, 1086, 1085, 1087
  10,  450,  448,  451,  452, 1085, 1089, 1088, 1091, 1090, 1092
  11,  450,  453,  454,  447, 1095, 1094, 1093, 1086, 1096, 1097
  12,  450,  455,  456,  457, 1100, 1099, 1098, 1102, 1101, 1103
  13,  450,  447,  448,  458, 1086, 1084, 1085, 1105, 1104, 1106
  14,  450,  458,  448,  452, 1105, 1106, 1085, 1091, 1107, 1090
  15,  459,  460,  461,  462, 1110, 1109, 1108, 1112, 1111, 1113
  16,  459,  463,  464,  465, 1116, 1115, 1114, 1118, 1117, 1119
  17,  459,  466,  467,  462, 1122, 1121, 1120, 1112, 1123, 1124
  18,  436,  447,  468,  440, 1127, 1126, 1125, 1070, 1128, 1129
  19,  436,  469,  470,  471, 1132, 1131, 1130, 1134, 1133, 1135
  20,  438,  472,  439,  436, 1137, 1136, 1066, 1061, 1138, 1064
** ... 4879 like lines cut
*Nset, nset=Set-1
    1,    2,    3,    4,    5,    6,    7,    8,    9,   10,   11,   12,   13,   14,   15,   16
   17,   18,   19,   20,   21,   22,   23,   24,   25,   26,   27,   28,   29,   30,   31,   32
   33,   34,   35,   36,   37,   38,   39,   40,   41,   42,   43,   44,   45,   46,   47,   48
   49,   50,   51,   52,   53,   54,   55,   56,   57,   58,   59,   60,   61,   62,   63,   64
   65,   66,   67,   68,   69,   70,   71,   72,   73,   74,   75,   76,   77,   78,   79,   80
   81,   82,   83,   84,   85,   86,   87,   88,   89,   90,   91,   92,   93,   94,   95,   96
   97,   98,   99,  100,  101,  102,  103,  104,  105,  106,  107,  108,  109,  110,  111,  112
  113,  114,  115,  116,  117,  118,  119,  120,  121,  122,  123,  124,  125,  126,  127,  128
  129,  130,  131,  132,  133,  134,  135,  136,  137,  138,  139,  140,  141,  142,  143,  144
  145,  146,  147,  148,  149,  150,  151,  152,  153,  154,  155,  156,  157,  158,  159,  160
  161,  162,  163,  164,  165,  166,  167,  168,  169,  170,  171,  172,  173,  174,  175,  176
  177,  178,  179,  180,  181,  182,  183,  184,  185,  186,  187,  188,  189,  190,  191,  192
  193,  194,  195,  196,  197,  198,  199,  200,  201,  202,  203,  204,  205,  206,  207,  208
  209,  210,  211,  212,  213,  214,  215,  216,  217,  218,  219,  220,  221,  222,  223,  224
  225,  226,  227,  228,  229,  230,  231,  232,  233,  234,  235,  236,  237,  238,  239,  240
  241,  242,  243,  244,  245,  246,  247,  248,  249,  250,  251,  252,  253,  254,  255,  256
  257,  258,  259,  260,  261,  262,  263,  264,  265,  266,  267,  268,  269,  270,  271,  272
  273,  274,  275,  276,  277,  278,  279,  280,  281,  282,  283,  284,  285,  286,  287,  288
  289,  290,  291,  292,  293,  294,  295,  296,  297,  298,  299,  300,  301,  302,  303,  304
  305,  306,  307,  308,  309,  310,  311,  312,  313,  314,  315,  316,  317,  318,  319,  320
** ... 88 like lines cut
*Elset, elset=Set-1
   47,   77,   79,  114,  137,  171,  175,  178,  193,  215,  217,  228,  267,  268,  277,  289
  360,  374,  378,  389,  401,  404,  412,  427,  460,  599,  612,  632,  656,  662,  673,  693
  699,  717,  720,  733,  746,  762,  775,  826,  844,  871,  907,  913,  927,  937,  938,  997
 1019, 1025, 1036, 1045, 1078, 1129, 1130, 1151, 1155, 1165, 1191, 1209, 1241, 1299, 1306, 1323
 1397, 1408, 1409, 1450, 1493, 1507, 1529, 1531, 1532, 1549, 1556, 1557, 1570, 1612, 1613, 1619
 1630, 1633, 1636, 1647, 1653, 1656, 1658, 1662, 1663, 1667, 1668, 1677, 1678, 1681, 1685, 1686
 1688, 1689, 1690, 1691, 1694, 1697, 1698, 1702, 1705, 1714, 1721, 1722, 1723, 1725, 1727, 1732
 1735, 1736, 1737, 1738, 1741, 1743, 1744, 1748, 1750, 1752, 1756, 1759, 1763, 1769, 1776, 1777
 1781, 1788, 1789, 1790, 1797, 1798, 1801, 1807, 1809, 1810, 1811, 1812, 1814, 1815, 1817, 1823
 1829, 1830, 1832, 1833, 1836, 1838, 1839, 1840, 1841, 1842, 1846, 1848, 1852, 1854, 1855, 1859
 1861, 1863, 1867, 1868, 1870, 1871, 1874, 1875, 1876, 1880, 1881, 1888, 1892, 1895, 1896, 1899
 1903, 1905, 1906, 1907, 1910, 1913, 1916, 1918, 1919, 1920, 1921, 1922, 1931, 1938, 1940, 1945
 1948, 1952, 1954, 1955, 1958, 1961, 1965, 1972, 1973, 1974, 1980, 1982, 1984, 1985, 1987, 1988
 1990, 1996, 2002, 2005, 2007, 2008, 2010, 2014, 2016, 2017, 2018, 2019, 2021, 2024, 2026, 2030
 2031, 2032, 2033, 2044, 2045, 2050, 2057, 2066, 2070, 2076, 2079, 2081, 2086, 2087, 2097, 2100
 2110, 2118, 2121, 2122, 2126, 2127, 2130, 2139, 2140, 2143, 2144, 2152, 2154, 2155, 2160, 2185
 2186, 2188, 2189, 2191, 2194, 2202, 2205, 2209, 2212, 2223, 2225, 2229, 2230, 2232, 2236, 2239
 2240, 2242, 2246, 2247, 2248, 2249, 2250, 2253, 2254, 2255, 2256, 2257, 2259, 2260, 2265, 2266
 2270, 2276, 2280, 2284, 2285, 2289, 2291, 2294, 2297, 2302, 2304, 2305, 2307, 2312, 2313, 2314
 2316, 2322, 2323, 2324, 2326, 2334, 2335, 2342, 2359, 2360, 2361, 2363, 2372, 2374, 2381, 2385
** ... 34 like lines cut
*Nset, nset=Set-2
    1,    2,    3,    4,    5,    6,    7,    8,    9,   10,   11,   12,   13,   14,   15,   16
   17,   18,   19,   20,   21,   22,   23,   24,   25,   26,   27,   28,   29,   30,   31,   32
   33,   34,   35,   36,   37,   38,   39,   40,   41,   42,   43,   44,   45,   46,   47,   48
   49,   50,   51,   52,   53,   54,   55,   56,   57,   58,   59,   60,   61,   62,   63,   64
   65,   66,   67,   68,   69,   70,   71,   72,   73,   74,   75,   76,   77,   78,   79,   80
   81,   82,   83,   84,   85,   86,   87,   88,   89,   90,   91,   92,   93,   94,   95,   96
   97,   98,   99,  100,  101,  102,  103,  104,  105,  106,  107,  108,  109,  110,  111,  112
  113,  114,  115,  116,  117,  118,  119,  120,  121,  122,  123,  124,  125,  126,  127,  128
  129,  130,  131,  132,  133,  134,  135,  136,  137,  138,  139,  140,  141,  142,  143,  144
  145,  146,  147,  148,  149,  150,  151,  152,  153,  154,  155,  156,  157,  158,  159,  160
  161,  162,  163,  164,  165,  166,  167,  168,  169,  170,  171,  172,  173,  174,  175,  176
  177,  178,  179,  180,  181,  182,  183,  184,  185,  186,  187,  188,  189,  190,  191,  192
  193,  194,  195,  196,  197,  198,  199,  200,  201,  202,  203,  204,  205,  206,  207,  208
  209,  210,  211,  212,  213,  214,  215,  216,  217,  218,  219,  220,  221,  222,  223,  224
  225,  226,  227,  228,  229,  230,  231,  232,  233,  234,  235,  236,  237,  238,  239,  240
  241,  242,  243,  244,  245,  246,  247,  248,  249,  250,  251,  252,  253,  254,  255,  256
  257,  258,  259,  260,  261,  262,  263,  264,  265,  266,  267,  268,  269,  270,  271,  272
  273,  274,  275,  276,  277,  278,  279,  280,  281,  282,  283,  284,  285,  286,  287,  288
  289,  290,  291,  292,  293,  294,  295,  296,  297,  298,  299,  300,  301,  302,  303,  304
  305,  306,  307,  308,  309,  310,  311,  312,  313,  314,  315,  316,  317,  318,  319,  320
** ... 88 like lines cut
*Elset, elset=Set-2
   47,   77,   79,  114,  137,  171,  175,  178,  193,  215,  217,  228,  267,  268,  277,  289
  360,  374,  378,  389,  401,  404,  412,  427,  460,  599,  612,  632,  656,  662,  673,  693
  699,  717,  720,  733,  746,  762,  775,  826,  844,  871,  907,  913,  927,  937,  938,  997
 1019, 1025, 1036, 1045, 1078, 1129, 1130, 1151, 1155, 1165, 1191, 1209, 1241, 1299, 1306, 1323
 1397, 1408, 1409, 1450, 1493, 1507, 1529, 1531, 1532, 1549, 1556, 1557, 1570, 1612, 1613, 1619
 1630, 1633, 1636, 1647, 1653, 1656, 1658, 1662, 1663, 1667, 1668, 1677, 1678, 1681, 1685, 1686
 1688, 1689, 1690, 1691, 1694, 1697, 1698, 1702, 1705, 1714, 1721, 1722, 1723, 1725, 1727, 1732
 1735, 1736, 1737, 1738, 1741, 1743, 1744, 1748, 1750, 1752, 1756, 1759, 1763, 1769, 1776, 1777
 1781, 1788, 1789, 1790, 1797, 1798, 1801, 1807, 1809, 1810, 1811, 1812, 1814, 1815, 1817, 1823
 1829, 1830, 1832, 1833, 1836, 1838, 1839, 1840, 1841, 1842, 1846, 1848, 1852, 1854, 1855, 1859
 1861, 1863, 1867, 1868, 1870, 1871, 1874, 1875, 1876, 1880, 1881, 1888, 1892, 1895, 1896, 1899
 1903, 1905, 1906, 1907, 1910, 1913, 1916, 1918, 1919, 1920, 1921, 1922, 1931, 1938, 1940, 1945
 1948, 1952, 1954, 1955, 1958, 1961, 1965, 1972, 1973, 1974, 1980, 1982, 1984, 1985, 1987, 1988
 1990, 1996, 2002, 2005, 2007, 2008, 2010, 2014, 2016, 2017, 2018, 2019, 2021, 2024, 2026, 2030
 2031, 2032, 2033, 2044, 2045, 2050, 2057, 2066, 2070, 2076, 2079, 2081, 2086, 2087, 2097, 2100
 2110, 2118, 2121, 2122, 2126, 2127, 2130, 2139, 2140, 2143, 2144, 2152, 2154, 2155, 2160, 2185
 2186, 2188, 2189, 2191, 2194, 2202, 2205, 2209, 2212, 2223, 2225, 2229, 2230, 2232, 2236, 2239
 2240, 2242, 2246, 2247, 2248, 2249, 2250, 2253, 2254, 2255, 2256, 2257, 2259, 2260, 2265, 2266
 2270, 2276, 2280, 2284, 2285, 2289, 2291, 2294, 2297, 2302, 2304, 2305, 2307, 2312, 2313, 2314
 2316, 2322, 2323, 2324, 2326, 2334, 2335, 2342, 2359, 2360, 2361, 2363, 2372, 2374, 2381, 2385
** ... 34 like lines cut
*Nset, nset=Set-6, generate
    1,  7425,     1
*Elset, elset=Set-6, generate
    1,  4899,     1
*Elset, elset=_Surf-1_S3, internal
   47,   77,   79,  114,  137,  171,  175,  178,  215,  217,  228,  268,  277,  289,  360,  374
  378,  389,  401,  404,  412,  427,  460,  599,  632,  656,  662,  699,  717,  720,  733,  746
  762,  775,  826,  844,  871,  927,  937,  938,  997, 1019, 1025, 1036, 1045, 1078, 1129, 1130
 1155, 1191, 1241, 1299, 1306, 1323, 1397, 1408, 1409, 1450, 1493, 1507, 1532, 1549, 1557, 1570
 1612, 1613, 1619, 1630, 1633, 1636, 1647, 1653, 1656, 1658, 1662, 1663, 1668, 1677, 1678, 1681
 1685, 1686, 1688, 1689, 1690, 1691, 1694, 1697, 1698, 1705, 1714, 1722, 1723, 1725, 1727, 1732
 1735, 1736, 1737, 1738, 1741, 1743, 1744, 1748, 1750, 1752, 1756, 1759, 1763, 1769, 1776, 1777
 1788, 1789, 1790, 1797, 1798, 1801, 1807, 1809, 1811, 1812, 1814, 1815, 1817, 1823, 1829, 1830
 1832, 1833, 1836, 1838, 1840, 1841, 1842, 1846, 1848, 1852, 1854, 1855, 1859, 1861, 1863, 1867
 1868, 1870, 1871, 1874, 1875, 1876, 1881, 1888, 1892, 1895, 1899, 1903, 1905, 1906, 1907, 1910
 1913, 1916, 1918, 1919, 1920, 1921, 1922, 1931, 1938, 1940, 1945, 1948, 1952, 1954, 1955, 1958
 1961, 1965, 1972, 1973, 1974, 1980, 1982, 1984, 1985, 1987, 1988, 1990, 2002, 2005, 2007, 2008
 2010, 2014, 2016, 2017, 2018, 2019, 2021, 2024, 2026, 2030, 2031, 2032, 2033, 2044, 2045, 2050
 2057, 2066, 2070, 2076, 2079, 2081, 2086, 2087, 2097, 2100, 2110, 2118, 2121, 2122, 2126, 2127
 2130, 2139, 2140, 2143, 2144, 2152, 2154, 2155, 2160, 2185, 2186, 2188, 2189, 2191, 2202, 2205
 2209, 2212, 2223, 2225, 2232, 2239, 2240, 2242, 2246, 2247, 2248, 2249, 2250, 2253, 2254, 2255
 2256, 2257, 2259, 2260, 2265, 2266, 2270, 2276, 2280, 2284, 2285, 2289, 2291, 2297, 2302, 2304
 2307, 2312, 2313, 2314, 2316, 2322, 2323, 2324, 2326, 2334, 2335, 2342, 2359, 2360, 2361, 2363
 2372, 2374, 2381, 2385, 2390, 2392, 2398, 2406, 2412, 2423, 2433, 2434, 2437, 2453, 2454, 2462
 2475, 2486, 2492, 2497, 2500, 2501, 2507, 2509, 2512, 2516, 2519, 2521, 2525, 2531, 2545, 2548
** ... 30 like lines cut
*Elset, elset=_Surf-1_S4, internal
  193,  267,  612,  673,  693,  907, 1529, 1556, 1810, 1839, 1896, 2236, 2430, 2612, 2913, 2919
 3119, 3122, 3124, 3128, 3207, 3233, 3235, 3239, 3325, 3503, 3588, 3712, 3749, 3889, 4082, 4122
 4198, 4256, 4347, 4432, 4465, 4594, 4631, 4640, 4801
*Elset, elset=_Surf-1_S1, internal
  913, 1151, 1165, 1209, 1531, 1781, 1880, 2229, 3822, 3949, 4057, 4098, 4224, 4451
*Elset, elset=_Surf-1_S2, internal
 1667, 1702, 1721, 1996, 2194, 2230, 2294, 2305, 2435, 2455, 2575, 2582, 2868, 2995, 3472, 3480
 3550, 4159
*Surface, type=ELEMENT, name=Surf-1
_Surf-1_S3, S3
_Surf-1_S4, S4
_Surf-1_S2, S2
_Surf-1_S1, S1
** Section: Section-1
*Solid Section, elset=Set-6, material=Material-1
,
*End Part
**  
**
** ASSEMBLY
**
*Assembly, name=Assembly
**  
*Instance, name=Part-1-1, part=Part-1
*End Instance
**  
*Nset, nset=Set-3, instance=Part-1-1
 14,
*End Assembly
** 
** MATERIALS
** 
*Material, name=Material-1
*Density
 1.3,
*Hyperelastic, test data input, poisson=0.2
*Uniaxial Test Data, smooth=3
  -1659.6,  -0.785539
 -1315.88,  -0.736707
 -1048.61,  -0.687736
 -792.781,  -0.638538
 -592.931,  -0.589576
 -447.858,  -0.540394
 -346.729,  -0.490915
  -267.27,  -0.441747
  -205.87,  -0.392739
 -157.713,  -0.343703
  -119.79,  -0.294603
  -89.692,  -0.245656
 -63.8078,  -0.196524
 -43.3411,  -0.147437
 -25.8843, -0.0983611
 -10.8353, -0.0493878
  10.8353,  0.0493878
  25.8843,  0.0983611
  43.3411,   0.147437
  63.8078,   0.196524
** ... 11 like lines cut
** ----------------------------------------------------------------
** 
** STEP: Step-1
** 
*Step, name=Step-1, nlgeom=YES
*Dynamic,application=QUASI-STATIC,initial=NO
1., 1., 1e-05, 1.
** 
** BOUNDARY CONDITIONS
** 
** Name: BC-1 Type: Displacement/Rotation
*Boundary
